# FILES ##################

TITLE

# INTDER #################
    4    6    6    4    0 2000    2    0    0    1    3    0    0    0    0    0
 STRE    1    2
 STRE    1    3
 STRE    1    4
 BEND    2    1    3
 BEND    2    1    4
 BEND    3    1    4
    1   1  0.57735027     2  0.57735027     3  0.57735027
    2   1  0.81649658     2 -0.40824829     3 -0.40824829
    3   2  0.70710678     3 -0.70710678
    4   4  0.57735027     5  0.57735027     6  0.57735027
    5   4  0.81649658     5 -0.40824829     6 -0.40824829
    6   5  0.70710678     6 -0.70710678
    0
        0.0000000000        0.0000000000        0.0000000000
       -1.7774008284        0.0000000000        0.8049668900
        0.8887004142        1.5392742701        0.8049668900
        0.8887004142       -1.5392742701        0.8049668900
   14.003074    1.007825    1.007825    1.007825
    6    6                  1.1100667417
    5    5                  1.1100667419
    4    4                  0.8488589033
    3    3                  9.2196540477
    2    2                  9.2196540480
    1    1                  8.4552029750
    6    5                 -0.0000000001
    6    4                  0.0000000000
    5    4                  0.0000000000
    6    3                 -0.0841467445
    5    3                  0.1457464373
    4    3                  0.0000000000
    6    2                  0.1457464374
    5    2                  0.0841467450
    4    2                  0.0000000001
    3    2                  0.0000000004
    6    1                 -0.0000000000
    5    1                  0.0000000000
    4    1                  0.6942092919
    3    1                  0.0000000000
    2    1                  0.0000000001
    0
    6    6    6             0.0000000000
    5    5    5            -0.0963421342
    4    4    4            -0.4494839113
    3    3    3             0.0000000000
    2    2    2           -19.7338133859
    1    1    1           -26.4283573259
    6    6    5             0.0963420217
    6    5    5             0.0000000000
    6    6    4            -1.0187618600
    5    5    4            -1.0187618588
    6    4    4             0.0000000000
    5    4    4             0.0000000000
    6    6    3             0.0668526175
    5    5    3            -0.0668526175
    4    4    3             0.0000000000
    6    3    3            -0.3507338929
    5    3    3            -0.2024963204
    4    3    3            -0.4270481058
    6    6    2             0.0385974867
    5    5    2            -0.0385973892
    4    4    2             0.0000000000
    3    3    2            19.7338187692
    6    2    2             0.3507339017
    5    2    2             0.2024962579
    4    2    2            -0.4270481000
    3    2    2             0.0000000000
    6    6    1            -0.3678381350
    5    5    1            -0.3678381017
    4    4    1             0.4965152508
    3    3    1           -27.1010023517
    2    2    1           -27.1010023201
    6    1    1             0.0000000000
    5    1    1             0.0000000000
    4    1    1            -0.7596244575
    3    1    1             0.0000000000
    2    1    1             0.0000000000
    6    5    4             0.0000000000
    6    5    3            -0.0385973800
    6    4    3             0.1034309417
    5    4    3            -0.1791476425
    6    5    2             0.0668526517
    6    4    2            -0.1791476475
    5    4    2            -0.1034309525
    6    3    2             0.2024967567
    5    3    2            -0.3507347308
    4    3    2             0.0000000000
    6    5    1             0.0000000000
    6    4    1             0.0000000000
    5    4    1             0.0000000000
    6    3    1             0.1746087067
    5    3    1            -0.3024311142
    4    3    1             0.0000000000
    6    2    1            -0.3024310708
    5    2    1            -0.1746086442
    4    2    1             0.0000000000
    3    2    1             0.0000000000
    0
    6    6    6    6        1.3105570833
    5    5    5    5        1.3105545417
    4    4    4    4       -0.3453803542
    3    3    3    3      123.0441771668
    2    2    2    2      123.0442470834
    1    1    1    1       81.1193520834
    6    6    5    5        0.4368596250
    6    6    4    4        0.1154792083
    5    5    4    4        0.1154801042
    6    6    3    3       -1.7705710833
    5    5    3    3       -1.2372854167
    4    4    3    3       -1.4542490000
    6    6    2    2       -1.2373015000
    5    5    2    2       -1.7705710833
    4    4    2    2       -1.4542346667
    3    3    2    2       41.0147734166
    6    6    1    1       -0.3794351667
    5    5    1    1       -0.3794396667
    4    4    1    1        0.5547389167
    3    3    1    1       81.7059370001
    2    2    1    1       81.7059313334
    6    6    6    5        0.0000000000
    6    5    5    5        0.0000000000
    6    6    6    4        0.0000000000
    5    5    5    4       -0.6327993903
    6    4    4    4        0.0000000000
    5    4    4    4        0.0000000000
    6    6    6    3       -0.4242221139
    5    5    5    3        0.7348665528
    4    4    4    3        0.0000000000
    6    3    3    3        0.2679713006
    5    3    3    3       -0.4641042411
    4    3    3    3        0.0000000000
    6    6    6    2        0.7348320944
    5    5    5    2        0.4242508028
    4    4    4    2        0.0000000000
    3    3    3    2        0.0000000000
    6    2    2    2       -0.4640324494
    5    2    2    2       -0.2678861994
    4    2    2    2       -0.5215919494
    3    2    2    2        0.0000000000
    6    6    6    1        0.0000000000
    5    5    5    1        0.3756180528
    4    4    4    1        1.8524139252
    3    3    3    1        0.0000000000
    2    2    2    1       57.9601486014
    6    1    1    1        0.0000000000
    5    1    1    1        0.0000000000
    4    1    1    1       -1.4091701237
    3    1    1    1        0.0000000000
    2    1    1    1        0.0000000000
    6    6    5    4        0.6327984639
    6    5    5    4        0.0000000000
    6    5    4    4        0.0000000000
    6    6    5    3        0.2448693444
    6    5    5    3       -0.1413941556
    6    6    4    3       -0.1167085306
    5    5    4    3        0.1166976778
    6    4    4    3       -0.3041356582
    5    4    4    3        0.5267693002
    6    5    3    3       -0.4617353081
    6    4    3    3        0.5248216294
    5    4    3    3        0.3029515669
    6    6    5    2        0.1414333444
    6    5    5    2        0.2449484694
    6    6    4    2       -0.0673852806
    5    5    4    2        0.0673813861
    6    4    4    2        0.5267616335
    5    4    4    2        0.3041232168
    6    6    3    2       -0.4618482278
    5    5    3    2        0.4618391055
    4    4    3    2        0.0000000000
    6    3    3    2       -0.1546205328
    5    3    3    2       -0.0892659911
    4    3    3    2        0.5216106339
    6    5    2    2        0.4617500461
    6    4    2    2       -0.5248173289
    5    4    2    2       -0.3029450372
    6    3    2    2        0.0893504256
    5    3    2    2       -0.1546609494
    4    3    2    2        0.0000000000
    6    6    5    1       -0.3756274056
    6    5    5    1        0.0000000000
    6    6    4    1        0.8191044278
    5    5    4    1        0.8191035528
    6    4    4    1        0.0000000000
    5    4    4    1        0.0000000000
    6    6    3    1        0.1189126889
    5    5    3    1       -0.1189223111
    4    4    3    1        0.0000000000
    6    3    3    1        0.7606823839
    5    3    3    1        0.4391006339
    4    3    3    1       -0.3576043244
    6    6    2    1        0.0686499389
    5    5    2    1       -0.0686442278
    4    4    2    1        0.0000000000
    3    3    2    1      -57.9601388989
    6    2    2    1       -0.7606738244
    5    2    2    1       -0.4391131994
    4    2    2    1       -0.3576091994
    3    2    2    1        0.0000000000
    6    5    1    1        0.0000000000
    6    4    1    1        0.0000000000
    5    4    1    1        0.0000000000
    6    3    1    1        0.0342648763
    5    3    1    1       -0.0592872487
    4    3    1    1        0.0000000000
    6    2    1    1       -0.0592849154
    5    2    1    1       -0.0342353321
    4    2    1    1        0.0000000000
    3    2    1    1        0.0000000000
    6    5    4    3        0.0673739583
    6    5    4    2       -0.1167104583
    6    5    3    2        0.2666360000
    6    4    3    2       -0.3029845000
    5    4    3    2        0.5246801667
    6    5    4    1        0.0000000000
    6    5    3    1       -0.0686595000
    6    4    3    1       -0.0928760000
    5    4    3    1        0.1608368333
    6    5    2    1        0.1189062500
    6    4    2    1        0.1608225833
    5    4    2    1        0.0928491667
    6    3    2    1       -0.4391070017
    5    3    2    1        0.7605595029
    4    3    2    1        0.0000000000
    0

